
     RDKit          3D

  9  8  0  0  0  0  0  0  0  0999 V2000
    1.0015   -0.7330   -0.7368 C   0  0  0  0  0  0  0  0  0  0  0  0
   -0.0516   -0.5695    0.0672 C   0  0  0  0  0  0  0  0  0  0  0  0
   -0.7306    0.7374    0.2713 C   0  0  0  0  0  0  0  0  0  0  0  0
   -0.5322    1.3738    2.1675 Br  0  0  0  0  0  0  0  0  0  0  0  0
    1.4434    0.1002   -1.2798 H   0  0  0  0  0  0  0  0  0  0  0  0
    1.4591   -1.7075   -0.8833 H   0  0  0  0  0  0  0  0  0  0  0  0
   -0.4678   -1.4184    0.6072 H   0  0  0  0  0  0  0  0  0  0  0  0
   -1.8111    0.6846    0.1315 H   0  0  0  0  0  0  0  0  0  0  0  0
   -0.3105    1.5325   -0.3448 H   0  0  0  0  0  0  0  0  0  0  0  0
  1  2  2  3
  2  3  1  0
  3  4  1  0
  1  5  1  0
  1  6  1  0
  2  7  1  0
  3  8  1  0
  3  9  1  0
M  END
