
 OpenBabel05092112263D

 32 33  0  0  0  0  0  0  0  0999 V2000
    3.0420   -1.3737    0.8668 C   0  0  0  0  0  0  0  0  0  0  0  0
    2.3623   -0.1987    0.3477 N   0  0  0  0  0  0  0  0  0  0  0  0
    0.9259   -0.2361    0.1328 C   0  0  0  0  0  0  0  0  0  0  0  0
    3.0652    0.9650    0.1153 C   0  0  0  0  0  0  0  0  0  0  0  0
    2.4201    2.1334   -0.3593 C   0  0  0  0  0  0  0  0  0  0  0  0
    3.1417    3.2947   -0.5894 C   0  0  0  0  0  0  0  0  0  0  0  0
    4.5244    3.3556   -0.3615 C   0  0  0  0  0  0  0  0  0  0  0  0
    5.1740    2.1992    0.1109 C   0  0  0  0  0  0  0  0  0  0  0  0
    4.4667    1.0347    0.3447 C   0  0  0  0  0  0  0  0  0  0  0  0
    5.1453    4.5868   -0.6277 N   0  5  0  0  0  0  0  0  0  0  0  0
    6.3930    4.6202   -0.4173 N   0  3  0  0  0  0  0  0  0  0  0  0
    7.0030    5.8706   -0.6886 C   0  0  0  0  0  0  0  0  0  0  0  0
    8.3858    5.9286   -0.4657 C   0  0  0  0  0  0  0  0  0  0  0  0
    9.0889    7.1093   -0.6989 C   0  0  0  0  0  0  0  0  0  0  0  0
    8.4145    8.2424   -1.1574 C   0  0  0  0  0  0  0  0  0  0  0  0
    7.0328    8.1880   -1.3814 C   0  0  0  0  0  0  0  0  0  0  0  0
    6.3259    7.0135   -1.1502 C   0  0  0  0  0  0  0  0  0  0  0  0
    2.3205   -2.1844    0.9790 H   0  0  0  0  0  0  0  0  0  0  0  0
    3.4968   -1.1850    1.8497 H   0  0  0  0  0  0  0  0  0  0  0  0
    3.8334   -1.7187    0.1875 H   0  0  0  0  0  0  0  0  0  0  0  0
    0.5535   -1.2346    0.3666 H   0  0  0  0  0  0  0  0  0  0  0  0
    0.6661   -0.0143   -0.9114 H   0  0  0  0  0  0  0  0  0  0  0  0
    0.3960    0.4833    0.7736 H   0  0  0  0  0  0  0  0  0  0  0  0
    1.3533    2.1333   -0.5468 H   0  0  0  0  0  0  0  0  0  0  0  0
    2.6435    4.1888   -0.9529 H   0  0  0  0  0  0  0  0  0  0  0  0
    6.2429    2.2404    0.2899 H   0  0  0  0  0  0  0  0  0  0  0  0
    5.0009    0.1652    0.7097 H   0  0  0  0  0  0  0  0  0  0  0  0
    8.8849    5.0324   -0.1091 H   0  0  0  0  0  0  0  0  0  0  0  0
   10.1607    7.1455   -0.5230 H   0  0  0  0  0  0  0  0  0  0  0  0
    8.9590    9.1651   -1.3396 H   0  0  0  0  0  0  0  0  0  0  0  0
    6.5082    9.0709   -1.7381 H   0  0  0  0  0  0  0  0  0  0  0  0
    5.2564    6.9534   -1.3176 H   0  0  0  0  0  0  0  0  0  0  0  0
  1 18  1  0  0  0  0
  1 19  1  0  0  0  0
  2  1  1  0  0  0  0
  3  2  1  0  0  0  0
  3 21  1  0  0  0  0
  3 23  1  0  0  0  0
  4  9  1  0  0  0  0
  4  2  1  0  0  0  0
  5  4  2  0  0  0  0
  6  7  2  0  0  0  0
  6  5  1  0  0  0  0
  7  8  1  0  0  0  0
  8 26  1  0  0  0  0
  8  9  2  0  0  0  0
  9 27  1  0  0  0  0
 10 11  1  0  0  0  0
 10  7  1  0  0  0  0
 12 13  1  0  0  0  0
 12 11  1  0  0  0  0
 13 28  1  0  0  0  0
 14 29  1  0  0  0  0
 14 13  2  0  0  0  0
 15 14  1  0  0  0  0
 16 15  2  0  0  0  0
 16 17  1  0  0  0  0
 17 12  2  0  0  0  0
 20  1  1  0  0  0  0
 22  3  1  0  0  0  0
 24  5  1  0  0  0  0
 25  6  1  0  0  0  0
 30 15  1  0  0  0  0
 31 16  1  0  0  0  0
 32 17  1  0  0  0  0
M  CHG  2  10  -1  11   1
M  END
